Circuit: * C:\Users\Juan Pablo\Documents\repositorios\tp-final-DCE\Amplificador\simulaciones_amplificador\amplificador_completo.asc

WARNING: Node N055 is floating.

Direct Newton iteration failed to find .op point.  (Use ".option noopiter" to skip.)
Starting Gmin stepping
Gmin = 10
Gmin = 1.07374
Gmin = 0.115292
vernier = 0.5
Gmin = 0.021492
vernier = 0.25
vernier = 0.125
vernier = 0.0625
Gmin = 0.0198936
vernier = 0.03125
vernier = 0.015625
vernier = 0.0078125
vernier = 0.0104167
vernier = 0.00520833
Gmin = 0.0200083
vernier = 0.00260417
vernier = 0.00130208
vernier = 0.000651042
vernier = 0.000488281
Gmin = 0
Gmin stepping failed

Starting source stepping with srcstepmethod=0
Source Step = 3.0303%
vernier = 0.25
Source Step = 1.76669%
Source Step = 1.79628%
Source Step = 1.82588%
Source Step = 1.85547%
Source Step = 1.88506%
Source Step = 1.91465%
vernier = 0.00146484
Source Step = 1.95756%
Source Step = 2.00195%
Source Step = 2.04634%
Source Step = 2.09073%
Source Step = 2.13512%
vernier = 0.00219727
Source Step = 2.19061%
Source Step = 2.25719%
Source Step = 2.32377%
Source Step = 2.39036%
Source Step = 2.45694%
vernier = 0.0032959
Source Step = 2.53684%
Source Step = 2.63672%
Source Step = 2.73659%
Source Step = 2.83647%
Source Step = 2.93635%
Source Step = 3.03622%
Source Step = 3.1361%
Source Step = 3.23597%
Source Step = 3.33585%
Source Step = 3.43572%
vernier = 0.00494385
Source Step = 3.57555%
Source Step = 3.72536%
Source Step = 3.87518%
Source Step = 4.02499%
Source Step = 4.1748%
vernier = 0.00741577
Source Step = 4.37705%
Source Step = 4.60177%
Source Step = 4.82649%
Source Step = 5.05121%
Source Step = 5.27593%
vernier = 0.0111237
Source Step = 5.56807%
Source Step = 5.90515%
Source Step = 6.24223%
Source Step = 6.57931%
Source Step = 6.91639%
vernier = 0.0166855
Source Step = 7.33774%
Source Step = 7.84336%
Source Step = 8.34899%
Source Step = 8.85461%
Source Step = 9.36023%
vernier = 0.0250282
Source Step = 9.96697%
Source Step = 10.7254%
Source Step = 11.4838%
Source Step = 12.2423%
Source Step = 13.0007%
vernier = 0.0375423
Source Step = 13.8729%
Source Step = 15.0105%
Source Step = 16.1482%
Source Step = 17.2858%
Source Step = 18.4235%
vernier = 0.0563135
Source Step = 19.6749%
Source Step = 21.3814%
vernier = 0.0140784
Source Step = 21.3067%
Source Step = 21.4134%
Source Step = 21.52%
Source Step = 21.6267%
Source Step = 21.7333%
vernier = 0.00527939
Source Step = 21.8826%
Source Step = 22.0426%
Source Step = 22.2026%
Source Step = 22.3626%
Source Step = 22.5226%
vernier = 0.00791909
Source Step = 22.7385%
Source Step = 22.9785%
Source Step = 23.2185%
Source Step = 23.4585%
Source Step = 23.6984%
vernier = 0.0118786
Source Step = 24.0104%
Source Step = 24.2534%
Source Step = 24.3434%
Source Step = 24.4333%
Source Step = 24.5233%
Source Step = 24.6133%
vernier = 0.00445449
Source Step = 24.7123%
Source Step = 24.8473%
Source Step = 24.9823%
Source Step = 25.1173%
Source Step = 25.2522%
vernier = 0.00668173
Source Step = 25.394%
Source Step = 25.5965%
Source Step = 25.7989%
Source Step = 26.0014%
Source Step = 26.2039%
Source Step = 26.4064%
vernier = 0.0100226
Source Step = 26.7101%
Source Step = 27.0138%
Source Step = 27.3175%
Source Step = 27.6212%
Source Step = 27.9249%
vernier = 0.0150339
Source Step = 28.3653%
Source Step = 28.8209%
Source Step = 29.2765%
Source Step = 29.732%
Source Step = 30.1876%
vernier = 0.0225508
Source Step = 30.8254%
Source Step = 31.5088%
Source Step = 32.1921%
Source Step = 32.8755%
Source Step = 33.5589%
vernier = 0.0338263
Source Step = 34.4814%
Source Step = 35.5064%
Source Step = 36.5315%
Source Step = 37.5565%
Source Step = 38.5815%
vernier = 0.0507394
Source Step = 39.9141%
Source Step = 41.4516%
Source Step = 42.9892%
Source Step = 44.5268%
Source Step = 46.0643%
vernier = 0.0761091
Source Step = 47.9863%
Source Step = 50.2926%
Source Step = 52.5989%
Source Step = 54.9053%
Source Step = 57.2116%
vernier = 0.114164
Source Step = 59.9792%
Source Step = 63.4387%
Source Step = 66.8982%
Source Step = 70.3577%
Source Step = 73.8172%
vernier = 0.171245
Source Step = 77.7957%
Source Step = 82.9849%
Source Step = 88.1742%
Source Step = 91.2958%
Source Step = 91.3769%
Source Step = 91.458%
Source Step = 91.5391%
Source Step = 91.6202%
Source Step = 91.7012%
Source Step = 91.7823%
Source Step = 91.8634%
Source Step = 91.9445%
Source Step = 92.0256%
Source Step = 92.1067%
Source Step = 92.1877%
Source Step = 92.2688%
Source Step = 92.3499%
Source Step = 92.431%
Source Step = 92.5121%
Source Step = 92.5931%
Source Step = 92.6742%
Source Step = 92.7553%
Source Step = 92.8364%
Source Step = 92.9175%
Source Step = 92.9986%
Source Step = 93.0796%
Source Step = 93.1607%
Source Step = 93.2418%
Source Step = 93.3229%
Source Step = 93.404%
Source Step = 93.4851%
Source Step = 93.5661%
Source Step = 93.6472%
Source Step = 93.7283%
Source Step = 93.8094%
Source Step = 93.8905%
Source Step = 93.9715%
Source Step = 94.0526%
Source Step = 94.1337%
Source Step = 94.2148%
Source Step = 94.2959%
Source Step = 94.377%
Source Step = 94.458%
Source Step = 94.5391%
Source Step = 94.6202%
Source Step = 94.7013%
Source Step = 94.7824%
Source Step = 94.8634%
Source Step = 94.9445%
Source Step = 95.0256%
Source Step = 95.1067%
Source Step = 95.1878%
Source Step = 95.2689%
Source Step = 95.3499%
Source Step = 95.431%
vernier = 0.00401357
Source Step = 95.5162%
Source Step = 95.6378%
Source Step = 95.7594%
Source Step = 95.881%
Source Step = 96.0027%
Source Step = 96.1243%
vernier = 0.00602035
Source Step = 96.3067%
Source Step = 96.4891%
Source Step = 96.6716%
Source Step = 96.854%
Source Step = 97.0364%
vernier = 0.00903052
Source Step = 97.301%
Source Step = 97.5746%
Source Step = 97.8483%
Source Step = 98.1219%
Source Step = 98.3956%
vernier = 0.0135458
Source Step = 98.7787%
Source Step = 99.1892%
Source Step = 99.5997%
Source Step = 100%
Source stepping succeeded in finding the operating point.


Date: Sat Sep 07 16:35:19 2019
Total elapsed time: 18.460 seconds.

tnom = 27
temp = 27
method = modified trap
totiter = 162235
traniter = 104555
tranpoints = 27201
accept = 19239
rejected = 7962
matrix size = 201
fillins = 430
solver = Normal
Thread vector: 21.2/12.9[2] 7.5/5.3[2] 2.9/3.3[1] 2.0/1.8[2]  2592/500
Matrix Compiler1: 44.34 KB object code size  11.3/5.1/[3.5]
Matrix Compiler2: 25.58 KB object code size  4.5/4.3/[2.7]

