Circuit: * C:\Users\Admin\Documents\git\tp-final-ruiz-goyret-DCE-FIUBA-1C2019\Amplificador\simulaciones_amplificador\amplificador_completo.asc

WARNING: Node N055 is floating.

Direct Newton iteration failed to find .op point.  (Use ".option noopiter" to skip.)
Starting Gmin stepping
Gmin = 10
Gmin = 1.07374
Gmin = 0.115292
Gmin = 0.0123794
Gmin = 0.00132923
Gmin = 0.000142725
Gmin = 1.5325e-005
vernier = 0.5
vernier = 0.25
Gmin = 3.21388e-006
vernier = 0.125
vernier = 0.0625
vernier = 0.0833333
vernier = 0.0416667
Gmin = 2.97415e-006
vernier = 0.0208333
vernier = 0.0104167
vernier = 0.00520833
vernier = 0.00260417
vernier = 0.00347222
Gmin = 2.96191e-006
vernier = 0.00462963
vernier = 0.00231481
Gmin = 2.93887e-006
vernier = 0.00115741
vernier = 0.000578703
vernier = 0.000434027
Gmin = 0
Gmin stepping failed

Starting source stepping with srcstepmethod=0
Source Step = 3.0303%
vernier = 0.25
Source Step = 2.50947%
Source Step = 2.98295%
Source Step = 3.09541%
Source Step = 3.125%
Source Step = 3.15459%
Source Step = 3.18419%
Source Step = 3.21378%
vernier = 0.00146484
Source Step = 3.24781%
Source Step = 3.2922%
Source Step = 3.33659%
Source Step = 3.38098%
Source Step = 3.42537%
vernier = 0.00219727
Source Step = 3.4742%
Source Step = 3.54078%
Source Step = 3.60736%
Source Step = 3.67395%
Source Step = 3.74053%
vernier = 0.0032959
Source Step = 3.81044%
Source Step = 3.91032%
Source Step = 4.01019%
Source Step = 4.11007%
Source Step = 4.20995%
Source Step = 4.30982%
vernier = 0.00494385
Source Step = 4.45964%
Source Step = 4.60945%
Source Step = 4.75926%
Source Step = 4.90908%
Source Step = 5.05889%
vernier = 0.00741577
Source Step = 5.23679%
Source Step = 5.29297%
Source Step = 5.34915%
Source Step = 5.40533%
Source Step = 5.46151%
Source Step = 5.51769%
vernier = 0.00278091
Source Step = 5.59354%
Source Step = 5.67781%
Source Step = 5.76208%
Source Step = 5.84635%
Source Step = 5.93062%
vernier = 0.00417137
Source Step = 6.04017%
Source Step = 6.16657%
Source Step = 6.29298%
Source Step = 6.41938%
Source Step = 6.54579%
vernier = 0.00625706
Source Step = 6.7038%
Source Step = 6.8934%
Source Step = 7.08301%
Source Step = 7.27262%
Source Step = 7.46223%
vernier = 0.00938559
Source Step = 7.68976%
Source Step = 7.97417%
Source Step = 8.25858%
Source Step = 8.54299%
Source Step = 8.8274%
vernier = 0.0140784
Source Step = 9.15448%
Source Step = 9.58109%
Source Step = 10.0077%
Source Step = 10.4343%
Source Step = 10.8609%
vernier = 0.0211176
Source Step = 11.3302%
Source Step = 11.9702%
Source Step = 12.6101%
Source Step = 13.25%
Source Step = 13.8899%
vernier = 0.0316764
Source Step = 14.5619%
Source Step = 15.5217%
Source Step = 16.4816%
Source Step = 17.4415%
Source Step = 18.4014%
Source Step = 19.3613%
vernier = 0.0475145
Source Step = 20.8011%
Source Step = 21.548%
Source Step = 21.638%
Source Step = 21.728%
Source Step = 21.818%
Source Step = 21.908%
vernier = 0.00445449
Source Step = 22.007%
Source Step = 22.142%
Source Step = 22.277%
Source Step = 22.4119%
Source Step = 22.5469%
vernier = 0.00668173
Source Step = 22.6887%
Source Step = 22.8911%
Source Step = 23.0936%
Source Step = 23.2961%
Source Step = 23.4986%
Source Step = 23.7011%
vernier = 0.0100226
Source Step = 24.0048%
Source Step = 24.3085%
Source Step = 24.6122%
Source Step = 24.9159%
Source Step = 25.2196%
vernier = 0.0150339
Source Step = 25.66%
Source Step = 26.1156%
Source Step = 26.5712%
Source Step = 27.0267%
Source Step = 27.4823%
vernier = 0.0225508
Source Step = 28.1201%
Source Step = 28.8035%
Source Step = 29.4868%
Source Step = 30.1702%
Source Step = 30.8535%
vernier = 0.0338263
Source Step = 31.7761%
Source Step = 32.8011%
Source Step = 33.8262%
Source Step = 34.8512%
Source Step = 35.8762%
vernier = 0.0507394
Source Step = 37.2088%
Source Step = 38.7463%
Source Step = 40.2839%
Source Step = 41.8214%
Source Step = 43.359%
vernier = 0.0761091
Source Step = 45.281%
Source Step = 47.5873%
Source Step = 49.8936%
Source Step = 52.2%
Source Step = 54.5063%
vernier = 0.114164
Source Step = 57.2739%
Source Step = 60.7334%
Source Step = 64.1929%
Source Step = 67.6524%
Source Step = 71.1119%
vernier = 0.171245
Source Step = 75.0903%
Source Step = 80.2796%
Source Step = 85.4689%
Source Step = 90.6581%
Source Step = 91.2257%
Source Step = 91.3068%
Source Step = 91.3879%
Source Step = 91.4689%
Source Step = 91.55%
Source Step = 91.6311%
Source Step = 91.7122%
Source Step = 91.7933%
Source Step = 91.8743%
Source Step = 91.9554%
Source Step = 92.0365%
Source Step = 92.1176%
Source Step = 92.1987%
Source Step = 92.2798%
Source Step = 92.3608%
Source Step = 92.4419%
Source Step = 92.523%
Source Step = 92.6041%
Source Step = 92.6852%
Source Step = 92.7662%
Source Step = 92.8473%
Source Step = 92.9284%
Source Step = 93.0095%
Source Step = 93.0906%
Source Step = 93.1717%
Source Step = 93.2527%
Source Step = 93.3338%
Source Step = 93.4149%
Source Step = 93.496%
Source Step = 93.5771%
Source Step = 93.6582%
Source Step = 93.7392%
Source Step = 93.8203%
Source Step = 93.9014%
Source Step = 93.9825%
Source Step = 94.0636%
Source Step = 94.1446%
Source Step = 94.2257%
Source Step = 94.3068%
Source Step = 94.3879%
Source Step = 94.469%
Source Step = 94.5501%
Source Step = 94.6311%
Source Step = 94.7122%
Source Step = 94.7933%
Source Step = 94.8744%
Source Step = 94.9555%
Source Step = 95.0365%
Source Step = 95.1176%
Source Step = 95.1987%
Source Step = 95.2798%
Source Step = 95.3609%
vernier = 0.00401357
Source Step = 95.4622%
Source Step = 95.5839%
Source Step = 95.7055%
Source Step = 95.8271%
Source Step = 95.9487%
vernier = 0.00602035
Source Step = 96.0947%
Source Step = 96.2771%
Source Step = 96.4595%
Source Step = 96.642%
Source Step = 96.8244%
vernier = 0.00903052
Source Step = 97.0342%
Source Step = 97.3079%
Source Step = 97.5815%
Source Step = 97.8552%
Source Step = 98.1288%
vernier = 0.0135458
Source Step = 98.4298%
Source Step = 98.8403%
Source Step = 99.2508%
Source Step = 99.6613%
Source stepping succeeded in finding the operating point.


Date: Mon Nov 25 15:19:07 2019
Total elapsed time: 23.357 seconds.

tnom = 27
temp = 27
method = modified trap
totiter = 112204
traniter = 53890
tranpoints = 13768
accept = 9779
rejected = 3989
matrix size = 201
fillins = 432
solver = Normal
Thread vector: 30.9/22.2[2] 11.7/7.7[2] 2.8/3.4[1] 2.6/4.0[1]  2592/500
Matrix Compiler1: 44.73 KB object code size  15.3/8.1/[4.0]
Matrix Compiler2: 25.61 KB object code size  4.2/8.3/[3.1]

