Circuit: * C:\Users\Juan Pablo\Documents\repositorios\tp-final-DCE\Amplificador\simulaciones_amplificador\amplificador_medir_Rin.asc

Direct Newton iteration failed to find .op point.  (Use ".option noopiter" to skip.)
Starting Gmin stepping
Gmin = 10
Gmin = 1.07374
Gmin = 0.115292
Gmin = 0.0123794
Gmin = 0.00132923
Gmin = 0.000142725
Gmin = 1.5325e-005
vernier = 0.5
Gmin = 2.85678e-006
vernier = 0.25
vernier = 0.125
vernier = 0.0625
vernier = 0.03125
vernier = 0.015625
vernier = 0.0078125
Gmin = 3.01893e-006
vernier = 0.0104167
vernier = 0.00520833
vernier = 0.00260417
Gmin = 2.98767e-006
vernier = 0.00130208
vernier = 0.000651042
vernier = 0.000488281
Gmin = 0
Gmin stepping failed

Starting source stepping with srcstepmethod=0
Source Step = 3.0303%
Source Step = 3.41797%
Source Step = 3.44756%
Source Step = 3.47715%
Source Step = 3.50675%
Source Step = 3.53634%
Source Step = 3.56593%
vernier = 0.00146484
Source Step = 3.61032%
Source Step = 3.65471%
Source Step = 3.6991%
Source Step = 3.74349%
Source Step = 3.78788%
vernier = 0.00219727
Source Step = 3.85224%
Source Step = 3.91883%
Source Step = 3.98541%
Source Step = 4.05199%
Source Step = 4.11858%
vernier = 0.0032959
Source Step = 4.2118%
Source Step = 4.31167%
Source Step = 4.41155%
Source Step = 4.51142%
Source Step = 4.6113%
vernier = 0.00494385
Source Step = 4.74613%
Source Step = 4.89594%
Source Step = 5.04576%
Source Step = 5.19557%
vernier = 0.00123596
Source Step = 5.21804%
Source Step = 5.2555%
Source Step = 5.29295%
Source Step = 5.3304%
Source Step = 5.36786%
vernier = 0.00185394
Source Step = 5.42029%
Source Step = 5.47647%
Source Step = 5.53265%
Source Step = 5.58883%
Source Step = 5.64501%
vernier = 0.00278091
Source Step = 5.72086%
Source Step = 5.80513%
Source Step = 5.8894%
Source Step = 5.97367%
Source Step = 6.05794%
vernier = 0.00417137
Source Step = 6.16749%
Source Step = 6.29389%
Source Step = 6.4203%
Source Step = 6.5467%
Source Step = 6.67311%
vernier = 0.00625706
Source Step = 6.83111%
Source Step = 7.02072%
Source Step = 7.21033%
Source Step = 7.39994%
Source Step = 7.58955%
vernier = 0.00938559
Source Step = 7.81707%
Source Step = 8.10149%
Source Step = 8.3859%
Source Step = 8.67031%
Source Step = 8.95472%
vernier = 0.0140784
Source Step = 9.28179%
Source Step = 9.70841%
Source Step = 10.135%
Source Step = 10.5616%
Source Step = 10.9883%
vernier = 0.0211176
Source Step = 11.4575%
Source Step = 12.0975%
Source Step = 12.7374%
Source Step = 13.3773%
Source Step = 14.0172%
vernier = 0.0316764
Source Step = 14.6892%
Source Step = 15.6491%
Source Step = 16.609%
Source Step = 17.5688%
Source Step = 18.5287%
Source Step = 19.4886%
vernier = 0.0475145
Source Step = 20.9285%
Source Step = 22.3683%
Source Step = 23.8081%
Source Step = 25.248%
Source Step = 25.6799%
Source Step = 26.0399%
Source Step = 26.3998%
Source Step = 26.7598%
Source Step = 27.1197%
vernier = 0.0178179
Source Step = 27.6057%
Source Step = 28.1456%
Source Step = 28.6856%
Source Step = 29.2255%
Source Step = 29.7654%
vernier = 0.0267269
Source Step = 30.4674%
Source Step = 31.2773%
Source Step = 32.0872%
Source Step = 32.8971%
Source Step = 33.707%
vernier = 0.0400904
Source Step = 34.7194%
Source Step = 35.9342%
Source Step = 37.1491%
Source Step = 37.4832%
Source Step = 37.5591%
Source Step = 37.635%
Source Step = 37.711%
Source Step = 37.7869%
vernier = 0.00375847
Source Step = 37.8742%
Source Step = 37.9881%
Source Step = 38.102%
Source Step = 38.2159%
Source Step = 38.3298%
vernier = 0.00563771
Source Step = 38.4551%
Source Step = 38.6259%
Source Step = 38.7967%
Source Step = 38.9676%
Source Step = 39.1384%
vernier = 0.00845657
Source Step = 39.3178%
Source Step = 39.5741%
Source Step = 39.8303%
Source Step = 40.0866%
Source Step = 40.3428%
Source Step = 40.5991%
vernier = 0.0126848
Source Step = 40.9835%
Source Step = 41.3679%
Source Step = 41.7523%
Source Step = 42.1367%
Source Step = 42.521%
vernier = 0.0190273
Source Step = 43.0784%
Source Step = 43.655%
Source Step = 44.2316%
Source Step = 44.8082%
Source Step = 45.3847%
vernier = 0.0285409
Source Step = 46.192%
Source Step = 47.0568%
Source Step = 47.9217%
Source Step = 48.7866%
Source Step = 49.6515%
vernier = 0.0428114
Source Step = 50.819%
Source Step = 52.1164%
Source Step = 53.4137%
Source Step = 54.711%
Source Step = 56.0083%
vernier = 0.064217
Source Step = 57.6948%
Source Step = 59.6408%
Source Step = 61.5868%
Source Step = 63.5327%
Source Step = 65.4787%
vernier = 0.0963256
Source Step = 67.9112%
Source Step = 70.8301%
Source Step = 73.7491%
Source Step = 76.668%
Source Step = 79.587%
vernier = 0.144488
Source Step = 83.0897%
Source Step = 87.4682%
Source Step = 90.5604%
vernier = 0.00225763
Source Step = 90.6015%
Source Step = 90.6699%
Source Step = 90.7383%
Source Step = 90.8067%
Source Step = 90.8751%
Source Step = 90.9436%
Source Step = 91.012%
Source Step = 91.0804%
Source Step = 91.1488%
Source Step = 91.2172%
Source Step = 91.2856%
Source Step = 91.354%
Source Step = 91.4224%
Source Step = 91.4909%
Source Step = 91.5593%
Source Step = 91.6277%
Source Step = 91.6961%
Source Step = 91.7645%
Source Step = 91.8329%
Source Step = 91.9013%
Source Step = 91.9697%
Source Step = 92.0382%
Source Step = 92.1066%
Source Step = 92.175%
Source Step = 92.2434%
Source Step = 92.3118%
Source Step = 92.3802%
Source Step = 92.4486%
Source Step = 92.5171%
Source Step = 92.5855%
Source Step = 92.6539%
vernier = 0.00338645
Source Step = 92.7428%
Source Step = 92.8454%
Source Step = 92.9481%
Source Step = 93.0507%
Source Step = 93.1533%
vernier = 0.00507967
Source Step = 93.2816%
Source Step = 93.4355%
Source Step = 93.5894%
Source Step = 93.7434%
Source Step = 93.8973%
vernier = 0.0076195
Source Step = 94.082%
Source Step = 94.3129%
Source Step = 94.5438%
Source Step = 94.7747%
Source Step = 95.0056%
vernier = 0.0114293
Source Step = 95.2711%
Source Step = 95.6174%
Source Step = 95.9638%
Source Step = 96.3101%
Source Step = 96.6565%
vernier = 0.0171439
Source Step = 97.0374%
Source Step = 97.557%
Source Step = 98.0765%
Source Step = 98.596%
Source Step = 99.1155%
vernier = 0.0257158
Source Step = 99.661%
Source stepping succeeded in finding the operating point.


Date: Sun Sep 29 23:32:48 2019
Total elapsed time: 6.175 seconds.

tnom = 27
temp = 27
method = trap
totiter = 38260
traniter = 0
tranpoints = 0
accept = 0
rejected = 0
matrix size = 182
fillins = 413
solver = Normal
Matrix Compiler1:    2269 opcodes
Matrix Compiler2: 23.65 KB object code size  3.3/3.1/[1.7]

