Circuit: * C:\users\juan\My Documents\Diseno de circuitos electronicos\repositorio\tp-final-ruiz-goyret-DCE-FIUBA-1C2019\Amplificador\simulaciones_amplificador\amplificador_THD.asc

Direct Newton iteration failed to find .op point.  (Use ".option noopiter" to skip.)
Starting Gmin stepping
Gmin = 10
Gmin = 1.07374
Gmin = 0.115292
Gmin = 0.0123794
Gmin = 0.00132923
Gmin = 0.000142725
Gmin = 1.5325e-005
vernier = 0.5
Gmin = 2.85678e-006
vernier = 0.25
vernier = 0.125
vernier = 0.0625
vernier = 0.03125
vernier = 0.015625
Gmin = 3.01029e-006
vernier = 0.0078125
vernier = 0.00390625
vernier = 0.00195313
Gmin = 2.98835e-006
vernier = 0.000976563
vernier = 0.00130208
Gmin = 2.98179e-006
vernier = 0.00173611
vernier = 0.00231481
Gmin = 2.96942e-006
vernier = 0.00308642
Gmin = 2.94944e-006
vernier = 0.00411522
vernier = 0.00548696
Gmin = 2.91702e-006
vernier = 0.00731595
vernier = 0.00975459
Gmin = 2.86638e-006
vernier = 0.0130061
Gmin = 2.7861e-006
vernier = 0.00650306
vernier = 0.00867074
Gmin = 2.74566e-006
vernier = 0.00433537
vernier = 0.00216769
vernier = 0.00108384
vernier = 0.000541921
vernier = 0.000406441
Gmin = 2.7412e-006
Gmin = 0
Gmin stepping failed

Starting source stepping with srcstepmethod=0
Source Step = 3.0303%
vernier = 0.25
Source Step = 1.58913%
Source Step = 1.61873%
Source Step = 1.64832%
Source Step = 1.67791%
Source Step = 1.7075%
Source Step = 1.7371%
vernier = 0.00146484
Source Step = 1.78001%
Source Step = 1.8244%
Source Step = 1.86879%
Source Step = 1.91317%
Source Step = 1.95756%
vernier = 0.00219727
Source Step = 2.00639%
Source Step = 2.07298%
Source Step = 2.13956%
Source Step = 2.20614%
Source Step = 2.27273%
vernier = 0.0032959
Source Step = 2.34264%
Source Step = 2.44252%
Source Step = 2.54239%
Source Step = 2.64227%
Source Step = 2.74214%
Source Step = 2.84202%
vernier = 0.00494385
Source Step = 2.88696%
Source Step = 2.92442%
Source Step = 2.96187%
Source Step = 2.99932%
Source Step = 3.03678%
vernier = 0.00185394
Source Step = 3.08547%
Source Step = 3.14165%
Source Step = 3.19783%
Source Step = 3.25401%
Source Step = 3.31019%
vernier = 0.00278091
Source Step = 3.38041%
Source Step = 3.46468%
Source Step = 3.54895%
Source Step = 3.63322%
Source Step = 3.71749%
vernier = 0.00417137
Source Step = 3.81862%
Source Step = 3.94502%
Source Step = 4.07143%
Source Step = 4.19783%
Source Step = 4.32424%
vernier = 0.00625706
Source Step = 4.4696%
Source Step = 4.65921%
Source Step = 4.84882%
Source Step = 5.03843%
Source Step = 5.22803%
vernier = 0.00938559
Source Step = 5.4366%
Source Step = 5.72101%
Source Step = 6.00543%
Source Step = 6.28984%
Source Step = 6.57425%
vernier = 0.0140784
Source Step = 6.87288%
Source Step = 7.2995%
Source Step = 7.72612%
Source Step = 8.15273%
Source Step = 8.57935%
Source Step = 9.00597%
vernier = 0.0211176
Source Step = 9.6459%
Source Step = 10.2858%
Source Step = 10.9257%
Source Step = 11.5657%
Source Step = 12.2056%
vernier = 0.0316764
Source Step = 13.1335%
Source Step = 14.0934%
Source Step = 15.0533%
Source Step = 16.0132%
Source Step = 16.9731%
vernier = 0.0475145
Source Step = 18.3169%
Source Step = 19.7567%
Source Step = 21.1966%
Source Step = 22.6364%
Source Step = 24.0762%
vernier = 0.0712718
Source Step = 25.4801%
Source Step = 26.02%
Source Step = 26.5599%
Source Step = 27.0999%
Source Step = 27.6398%
vernier = 0.0267269
Source Step = 28.2068%
Source Step = 29.0167%
Source Step = 29.8266%
Source Step = 30.6365%
Source Step = 31.4464%
Source Step = 32.2563%
vernier = 0.0400904
Source Step = 33.4712%
Source Step = 34.686%
Source Step = 35.9009%
Source Step = 37.1157%
Source Step = 37.4726%
Source Step = 37.5485%
Source Step = 37.6245%
Source Step = 37.7004%
Source Step = 37.7763%
vernier = 0.00375847
Source Step = 37.856%
Source Step = 37.9699%
Source Step = 38.0838%
Source Step = 38.1977%
Source Step = 38.3116%
Source Step = 38.4255%
vernier = 0.00563771
Source Step = 38.5963%
Source Step = 38.7672%
Source Step = 38.938%
Source Step = 39.1089%
Source Step = 39.2797%
vernier = 0.00845657
Source Step = 39.5274%
Source Step = 39.7837%
Source Step = 40.0399%
Source Step = 40.2962%
Source Step = 40.5525%
vernier = 0.0126848
Source Step = 40.9112%
Source Step = 41.2956%
Source Step = 41.68%
Source Step = 42.0644%
Source Step = 42.4488%
vernier = 0.0190273
Source Step = 42.9677%
Source Step = 43.5443%
Source Step = 44.1209%
Source Step = 44.6975%
Source Step = 45.274%
vernier = 0.0285409
Source Step = 46.0236%
Source Step = 46.8885%
Source Step = 47.7534%
Source Step = 48.6182%
Source Step = 49.4831%
vernier = 0.0428114
Source Step = 50.5642%
Source Step = 51.8615%
Source Step = 53.1588%
Source Step = 54.4561%
Source Step = 55.7535%
vernier = 0.064217
Source Step = 57.3102%
Source Step = 59.2562%
Source Step = 61.2022%
Source Step = 63.1481%
Source Step = 65.0941%
vernier = 0.0963256
Source Step = 67.332%
Source Step = 70.2509%
Source Step = 73.1699%
Source Step = 76.0889%
Source Step = 79.0078%
vernier = 0.144488
Source Step = 82.2187%
Source Step = 86.5971%
Source Step = 90.9755%
Source Step = 92.3164%
Source Step = 92.3848%
Source Step = 92.4532%
Source Step = 92.5217%
Source Step = 92.5901%
Source Step = 92.6585%
Source Step = 92.7269%
Source Step = 92.7953%
Source Step = 92.8637%
Source Step = 92.9321%
Source Step = 93.0006%
Source Step = 93.069%
Source Step = 93.1374%
Source Step = 93.2058%
Source Step = 93.2742%
Source Step = 93.3426%
Source Step = 93.411%
Source Step = 93.4794%
Source Step = 93.5479%
Source Step = 93.6163%
Source Step = 93.6847%
Source Step = 93.7531%
Source Step = 93.8215%
Source Step = 93.8899%
Source Step = 93.9583%
Source Step = 94.0267%
Source Step = 94.0952%
Source Step = 94.1636%
Source Step = 94.232%
Source Step = 94.3004%
Source Step = 94.3688%
Source Step = 94.4372%
vernier = 0.00338645
Source Step = 94.5125%
Source Step = 94.6151%
Source Step = 94.7177%
Source Step = 94.8203%
Source Step = 94.923%
vernier = 0.00507967
Source Step = 95.0307%
Source Step = 95.1846%
Source Step = 95.3386%
Source Step = 95.4925%
Source Step = 95.6464%
Source Step = 95.8004%
vernier = 0.0076195
Source Step = 96.0313%
Source Step = 96.2621%
Source Step = 96.493%
Source Step = 96.7239%
Source Step = 96.9548%
vernier = 0.0114293
Source Step = 97.2896%
Source Step = 97.636%
Source Step = 97.9823%
Source Step = 98.3286%
Source Step = 98.675%
vernier = 0.0171439
Source Step = 99.1599%
Source Step = 99.6794%
Source stepping succeeded in finding the operating point.

N-Period=all
Fourier components of V(vin)
DC component:-5.58179e-010

Harmonic	Frequency	 Fourier 	Normalized	 Phase  	Normalized
 Number 	  [Hz]   	Component	 Component	[degree]	Phase [deg]
    1   	1.000e+04	8.400e-01	1.000e+00	   -0.00°	    0.00°
    2   	2.000e+04	1.353e-08	1.611e-08	   67.29°	   67.29°
    3   	3.000e+04	1.210e-07	1.440e-07	  -10.53°	  -10.53°
    4   	4.000e+04	1.850e-08	2.202e-08	 -150.39°	 -150.39°
    5   	5.000e+04	3.395e-08	4.042e-08	  -19.41°	  -19.41°
    6   	6.000e+04	1.012e-08	1.205e-08	 -139.25°	 -139.25°
    7   	7.000e+04	7.609e-08	9.059e-08	  144.67°	  144.67°
    8   	8.000e+04	6.556e-09	7.805e-09	  -19.80°	  -19.80°
    9   	9.000e+04	6.316e-08	7.519e-08	  133.66°	  133.66°
Total Harmonic Distortion: 0.000019%(0.000000%)

N-Period=all
Fourier components of V(vout)
DC component:-0.00253293

Harmonic	Frequency	 Fourier 	Normalized	 Phase  	Normalized
 Number 	  [Hz]   	Component	 Component	[degree]	Phase [deg]
    1   	1.000e+04	1.918e+01	1.000e+00	   -0.53°	    0.00°
    2   	2.000e+04	3.882e-04	2.024e-05	  -11.21°	  -10.68°
    3   	3.000e+04	3.379e-03	1.762e-04	  -94.14°	  -93.61°
    4   	4.000e+04	2.408e-04	1.256e-05	 -164.80°	 -164.27°
    5   	5.000e+04	3.420e-03	1.783e-04	  -69.76°	  -69.23°
    6   	6.000e+04	1.321e-04	6.887e-06	  102.87°	  103.40°
    7   	7.000e+04	3.210e-03	1.674e-04	    0.75°	    1.28°
    8   	8.000e+04	5.993e-04	3.125e-05	   20.51°	   21.04°
    9   	9.000e+04	4.549e-03	2.372e-04	   48.01°	   48.54°
Total Harmonic Distortion: 0.038565%(0.430433%)



Date: Tue Aug 13 21:06:09 2019
Total elapsed time: 31.227 seconds.

tnom = 27
temp = 27
method = modified trap
totiter = 131896
traniter = 90898
tranpoints = 27110
accept = 24635
rejected = 2475
matrix size = 181
fillins = 404
solver = Alternate
Thread vector: 68.6/39.0[2] 22.9/16.2[2] 5.5/5.6[1] 9.1/8.0[2]  2592/500
Matrix Compiler1: 51.91 KB object code size  26.9/18.0/[13.7]
Matrix Compiler2: 27.04 KB object code size  14.4/13.5/[8.4]

