Circuit: * Z:\home\juan\Documents\Diseno de circuitos electronicos\repositorio\tp-final-ruiz-goyret-DCE-FIUBA-1C2019\Amplificador\simulaciones_amplificador\amplificador_conmutador_prueba.asc

Direct Newton iteration failed to find .op point.  (Use ".option noopiter" to skip.)
Starting Gmin stepping
Gmin = 10
Gmin = 1.07374
Gmin = 0.115292
Gmin = 0.0123794
Gmin = 0.00132923
Gmin = 0.000142725
Gmin = 1.5325e-005
vernier = 0.5
Gmin = 2.85678e-006
vernier = 0.25
vernier = 0.125
vernier = 0.0625
vernier = 0.0833333
Gmin = 2.91345e-006
vernier = 0.0416667
vernier = 0.0208333
vernier = 0.0104167
vernier = 0.00520833
vernier = 0.00260417
vernier = 0.00130208
vernier = 0.000651042
vernier = 0.000488281
Gmin = 0
Gmin stepping failed

Starting source stepping with srcstepmethod=0
Source Step = 3.0303%
vernier = 0.25
Source Step = 1.75189%
Source Step = 1.87027%
Source Step = 1.98864%
Source Step = 2.10701%
Source Step = 2.22538%
vernier = 0.00585938
Source Step = 2.36151%
Source Step = 2.53906%
Source Step = 2.71662%
Source Step = 2.89418%
Source Step = 3.04066%
Source Step = 3.08505%
Source Step = 3.12944%
Source Step = 3.17383%
Source Step = 3.21822%
Source Step = 3.26261%
vernier = 0.00219727
Source Step = 3.32031%
Source Step = 3.3869%
Source Step = 3.45348%
Source Step = 3.52006%
Source Step = 3.58665%
vernier = 0.0032959
Source Step = 3.66988%
Source Step = 3.76975%
Source Step = 3.86963%
Source Step = 3.9695%
Source Step = 4.06938%
vernier = 0.00494385
Source Step = 4.18923%
Source Step = 4.33904%
Source Step = 4.48886%
Source Step = 4.63867%
Source Step = 4.78849%
vernier = 0.00741577
Source Step = 4.96077%
Source Step = 5.18549%
Source Step = 5.41021%
Source Step = 5.63493%
Source Step = 5.85965%
vernier = 0.0111237
Source Step = 6.10684%
Source Step = 6.44393%
Source Step = 6.78101%
Source Step = 7.11809%
Source Step = 7.45517%
vernier = 0.0166855
Source Step = 7.8091%
Source Step = 8.31472%
Source Step = 8.82034%
Source Step = 9.32596%
Source Step = 9.83158%
Source Step = 10.3372%
vernier = 0.0250282
Source Step = 11.0956%
Source Step = 11.8541%
Source Step = 12.6125%
Source Step = 13.3709%
Source Step = 14.1294%
vernier = 0.0375423
Source Step = 15.2291%
Source Step = 16.3667%
Source Step = 17.5044%
Source Step = 18.642%
Source Step = 19.7797%
vernier = 0.0563135
Source Step = 21.3724%
Source Step = 23.0788%
Source Step = 24.7853%
Source Step = 26.4918%
Source Step = 28.1983%
vernier = 0.0844703
Source Step = 30.502%
Source Step = 33.0617%
Source Step = 35.6214%
Source Step = 38.1811%
Source Step = 40.7408%
vernier = 0.126705
Source Step = 44.0684%
Source Step = 47.908%
Source Step = 51.7475%
Source Step = 55.5871%
Source Step = 59.4267%
vernier = 0.190058
Source Step = 64.2261%
Source Step = 69.9854%
Source Step = 75.7448%
Source Step = 81.5041%
Source Step = 87.2635%
vernier = 0.285087
Source Step = 94.1747%
Source Step = 100%
Source stepping succeeded in finding the operating point.


Date: Tue Jul 16 20:48:01 2019
Total elapsed time: 4.595 seconds.

tnom = 27
temp = 27
method = modified trap
totiter = 40958
traniter = 35159
tranpoints = 9225
accept = 6715
rejected = 2510
matrix size = 179
fillins = 376
solver = Normal
Thread vector: 29.7/19.8[2] 14.4/11.2[2] 4.4/5.7[1] 4.0/5.9[1]  2592/500
Matrix Compiler1: 37.91 KB object code size  22.3/12.2/[6.1]
Matrix Compiler2: 22.73 KB object code size  7.1/7.8/[4.2]

