Circuit: * Z:\home\juan\Documents\Diseno de circuitos electronicos\repositorio\tp-final-ruiz-goyret-DCE-FIUBA-1C2019\Amplificador\simulaciones_amplificador\amplificador_completo_oscilaciones.asc

WARNING: Node NC_01 is floating.
WARNING: Node N126 is floating.
WARNING: Node N042 is floating.
WARNING: Node N114 is floating.

WARNING: Less than two connections to node NC_01.  This node is used by C12.
WARNING: Less than two connections to node N126.  This node is used by C13.
WARNING: Less than two connections to node N042.  This node is used by C43.
WARNING: Less than two connections to node N114.  This node is used by C44.
Early termination of direct N-R iteration.
Direct Newton iteration failed to find .op point.  (Use ".option noopiter" to skip.)
Starting Gmin stepping
Gmin = 10
Gmin = 1.07374
Gmin = 0.115292
Gmin = 0.0123794
Gmin = 0.00132923
Gmin = 0.000142725
Gmin = 1.5325e-005
vernier = 0.5
vernier = 0.25
Gmin = 3.21388e-006
vernier = 0.125
vernier = 0.0625
vernier = 0.03125
Gmin = 2.80052e-006
vernier = 0.015625
vernier = 0.0078125
vernier = 0.0104167
Gmin = 2.75178e-006
vernier = 0.00520833
vernier = 0.00260417
vernier = 0.00130208
vernier = 0.000651042
vernier = 0.000488281
Gmin = 2.73683e-006
vernier = 0.000651041
vernier = 0.000488281
Gmin = 2.73361e-006
Gmin = 0
Gmin stepping failed

Starting source stepping with srcstepmethod=0
Source Step = 3.0303%
vernier = 0.25
Source Step = 1.68087%
Source Step = 1.71638%
Source Step = 1.74598%
Source Step = 1.77557%
Source Step = 1.80516%
Source Step = 1.83475%
Source Step = 1.86435%
Source Step = 1.89394%
Source Step = 1.92353%
Source Step = 1.95313%
Source Step = 1.98272%
vernier = 0.00146484
Source Step = 2.01675%
Source Step = 2.06114%
Source Step = 2.10553%
Source Step = 2.14992%
Source Step = 2.19431%
vernier = 0.00219727
Source Step = 2.24313%
Source Step = 2.30972%
Source Step = 2.3763%
Source Step = 2.44289%
Source Step = 2.50947%
vernier = 0.0032959
Source Step = 2.57938%
Source Step = 2.67926%
Source Step = 2.77913%
Source Step = 2.87901%
Source Step = 2.97889%
Source Step = 3.07876%
vernier = 0.00494385
Source Step = 3.22857%
Source Step = 3.37839%
Source Step = 3.5282%
Source Step = 3.67802%
Source Step = 3.82783%
vernier = 0.00741577
Source Step = 4.04506%
Source Step = 4.26978%
Source Step = 4.4945%
Source Step = 4.71922%
Source Step = 4.94394%
vernier = 0.0111237
Source Step = 5.25855%
Source Step = 5.59563%
Source Step = 5.93271%
Source Step = 6.26979%
Source Step = 6.60687%
vernier = 0.0166855
Source Step = 7.06193%
Source Step = 7.56755%
Source Step = 8.07317%
Source Step = 8.57879%
Source Step = 9.08441%
vernier = 0.0250282
Source Step = 9.74172%
Source Step = 10.5002%
Source Step = 11.2586%
Source Step = 12.017%
Source Step = 12.7754%
vernier = 0.0375423
Source Step = 13.7235%
Source Step = 14.8611%
Source Step = 15.9988%
Source Step = 17.1364%
Source Step = 18.2741%
vernier = 0.0563135
Source Step = 19.6392%
Source Step = 21.3457%
Source Step = 23.0522%
Source Step = 24.7587%
Source Step = 26.4651%
vernier = 0.0844703
Source Step = 28.4276%
Source Step = 30.9873%
Source Step = 33.547%
Source Step = 36.1067%
Source Step = 38.6664%
vernier = 0.126705
Source Step = 41.4821%
Source Step = 45.3216%
Source Step = 49.1612%
Source Step = 53.0007%
Source Step = 56.8403%
vernier = 0.190058
Source Step = 60.8718%
Source Step = 66.6312%
Source Step = 72.3905%
Source Step = 78.1498%
Source Step = 83.9092%
Source Step = 89.6685%
vernier = 0.285087
Source Step = 92.2703%
Source Step = 92.3041%
Source Step = 92.3378%
Source Step = 92.3716%
Source Step = 92.4053%
Source Step = 92.4391%
Source Step = 92.4728%
Source Step = 92.5066%
Source Step = 92.5403%
Source Step = 92.5741%
Source Step = 92.6078%
Source Step = 92.6415%
Source Step = 92.6753%
Source Step = 92.709%
Source Step = 92.7428%
Source Step = 92.7765%
Source Step = 92.8103%
Source Step = 92.844%
Source Step = 92.8778%
Source Step = 92.9115%
Source Step = 92.9453%
Source Step = 92.979%
Source Step = 93.0128%
Source Step = 93.0465%
Source Step = 93.0802%
Source Step = 93.114%
Source Step = 93.1477%
Source Step = 93.1815%
Source Step = 93.2152%
Source Step = 93.249%
Source Step = 93.2827%
Source Step = 93.3165%
Source Step = 93.3502%
Source Step = 93.384%
Source Step = 93.4177%
Source Step = 93.4515%
Source Step = 93.4852%
Source Step = 93.5189%
Source Step = 93.5527%
Source Step = 93.5864%
Source Step = 93.6202%
Source Step = 93.6539%
Source Step = 93.6877%
Source Step = 93.7214%
Source Step = 93.7552%
Source Step = 93.7889%
Source Step = 93.8227%
Source Step = 93.8564%
Source Step = 93.8902%
Source Step = 93.9239%
Source Step = 93.9576%
Source Step = 93.9914%
Source Step = 94.0251%
Source Step = 94.0589%
Source Step = 94.0926%
Source Step = 94.1264%
Source Step = 94.1601%
Source Step = 94.1939%
Source Step = 94.2276%
Source Step = 94.2614%
Source Step = 94.2951%
Source Step = 94.3289%
Source Step = 94.3626%
Source Step = 94.3963%
Source Step = 94.4301%
Source Step = 94.4638%
Source Step = 94.4976%
Source Step = 94.5313%
Source Step = 94.5651%
Source Step = 94.5988%
Source Step = 94.6326%
Source Step = 94.6663%
Source Step = 94.7001%
Source Step = 94.7338%
Source Step = 94.7676%
Source Step = 94.8013%
Source Step = 94.835%
Source Step = 94.8688%
Source Step = 94.9025%
Source Step = 94.9363%
Source Step = 94.97%
Source Step = 95.0038%
Source Step = 95.0375%
Source Step = 95.0713%
Source Step = 95.105%
Source Step = 95.1388%
Source Step = 95.1725%
Source Step = 95.2063%
Source Step = 95.24%
Source Step = 95.2737%
Source Step = 95.3075%
Source Step = 95.3412%
Source Step = 95.375%
Source Step = 95.4087%
Source Step = 95.4425%
Source Step = 95.4762%
Source Step = 95.51%
Source Step = 95.5437%
Source Step = 95.5775%
Source Step = 95.6112%
Source Step = 95.645%
Source Step = 95.6787%
vernier = 0.00167043
Source Step = 95.7259%
Source Step = 95.7766%
Source Step = 95.8272%
Source Step = 95.8778%
Source Step = 95.9284%
vernier = 0.00250565
Source Step = 95.9968%
Source Step = 96.0727%
Source Step = 96.1486%
Source Step = 96.2245%
Source Step = 96.3005%
vernier = 0.00375847
Source Step = 96.3992%
Source Step = 96.5131%
Source Step = 96.627%
Source Step = 96.7409%
Source Step = 96.8547%
vernier = 0.00563771
Source Step = 96.9971%
Source Step = 97.168%
Source Step = 97.3388%
Source Step = 97.5096%
Source Step = 97.6805%
vernier = 0.00845657
Source Step = 97.8855%
Source Step = 98.1417%
Source Step = 98.398%
Source Step = 98.6543%
Source Step = 98.9105%
vernier = 0.0126848
Source Step = 99.2052%
Source Step = 99.5896%
Source Step = 99.974%
Source stepping succeeded in finding the operating point.


Date: Thu Jul 25 11:05:01 2019
Total elapsed time: 105.387 seconds.

tnom = 27
temp = 27
method = trap
totiter = 114854
traniter = 0
tranpoints = 0
accept = 0
rejected = 0
matrix size = 515
fillins = 1297
solver = Normal
Matrix Compiler1:    6841 opcodes
Matrix Compiler2: 68.79 KB object code size  21.0/21.9/[11.4]

