Circuit: * C:\Users\Admin\Documents\git\tp-final-ruiz-goyret-DCE-FIUBA-1C2019\Amplificador\simulaciones_amplificador\amplificador_completo_prueba_accion_proteccion_DC.asc

WARNING: Node N056 is floating.

Direct Newton iteration failed to find .op point.  (Use ".option noopiter" to skip.)
Starting Gmin stepping
Gmin = 10
Gmin = 1.07374
Gmin = 0.115292
Gmin = 0.0123794
Gmin = 0.00132923
Gmin = 0.000142725
Gmin = 1.5325e-005
vernier = 0.5
Gmin = 2.85678e-006
vernier = 0.25
vernier = 0.125
vernier = 0.0625
vernier = 0.03125
vernier = 0.015625
Gmin = 3.09233e-006
vernier = 0.0078125
vernier = 0.00390625
Gmin = 3.05337e-006
vernier = 0.00520833
vernier = 0.00694444
Gmin = 3.01325e-006
vernier = 0.00925925
Gmin = 2.95119e-006
vernier = 0.0123457
vernier = 0.0164609
Gmin = 2.84992e-006
vernier = 0.0219478
vernier = 0.0292638
vernier = 0.0146319
Gmin = 2.73531e-006
vernier = 0.00731595
vernier = 0.00365797
vernier = 0.00182899
vernier = 0.000914493
vernier = 0.000457247
Gmin = 2.73375e-006
vernier = 0.000609662
vernier = 0.000812882
Gmin = 2.72903e-006
vernier = 0.00108384
vernier = 0.00144512
Gmin = 2.72152e-006
vernier = 0.00192683
Gmin = 2.70975e-006
vernier = 0.00256911
vernier = 0.00342548
Gmin = 2.69011e-006
vernier = 0.0045673
vernier = 0.00608973
Gmin = 2.65908e-006
vernier = 0.00811964
vernier = 0.00405982
Gmin = 2.62159e-006
vernier = 0.00202991
vernier = 0.00101495
vernier = 0.000507477
Gmin = 0
Gmin stepping failed

Starting source stepping with srcstepmethod=0
Source Step = 3.0303%
vernier = 0.25
Source Step = 1.60985%
vernier = 0.000976563
Source Step = 1.6276%
Source Step = 1.6572%
Source Step = 1.68679%
Source Step = 1.71638%
Source Step = 1.74598%
vernier = 0.00146484
Source Step = 1.78593%
Source Step = 1.83031%
Source Step = 1.8747%
Source Step = 1.91909%
Source Step = 1.96348%
vernier = 0.00219727
Source Step = 2.01009%
Source Step = 2.07667%
Source Step = 2.14326%
Source Step = 2.20984%
Source Step = 2.27643%
Source Step = 2.34301%
vernier = 0.0032959
Source Step = 2.44289%
Source Step = 2.54276%
Source Step = 2.64264%
Source Step = 2.74251%
Source Step = 2.84239%
Source Step = 2.94226%
Source Step = 3.04214%
Source Step = 3.14202%
Source Step = 3.24189%
vernier = 0.00494385
Source Step = 3.37173%
Source Step = 3.52154%
Source Step = 3.67136%
Source Step = 3.82117%
Source Step = 3.97098%
vernier = 0.00741577
Source Step = 4.15825%
Source Step = 4.38297%
Source Step = 4.60769%
Source Step = 4.83241%
Source Step = 5.05713%
vernier = 0.0111237
Source Step = 5.3268%
Source Step = 5.66388%
Source Step = 6.00096%
Source Step = 6.33804%
Source Step = 6.67512%
vernier = 0.0166855
Source Step = 7.06276%
Source Step = 7.56838%
Source Step = 8.074%
Source Step = 8.57962%
Source Step = 9.08524%
vernier = 0.0250282
Source Step = 9.64143%
Source Step = 10.3999%
Source Step = 11.1583%
Source Step = 11.9167%
Source Step = 12.6752%
vernier = 0.0375423
Source Step = 13.4715%
Source Step = 14.6092%
Source Step = 15.7468%
Source Step = 16.8844%
Source Step = 18.0221%
Source Step = 19.1597%
vernier = 0.0563135
Source Step = 20.8662%
Source Step = 22.5727%
Source Step = 24.2791%
Source Step = 25.9856%
Source Step = 27.6921%
vernier = 0.0844703
Source Step = 30.1665%
Source Step = 32.7262%
Source Step = 35.2859%
Source Step = 37.8456%
Source Step = 40.4053%
vernier = 0.126705
Source Step = 43.9889%
Source Step = 47.8284%
Source Step = 51.668%
Source Step = 55.5076%
Source Step = 59.3471%
vernier = 0.190058
Source Step = 64.5305%
Source Step = 70.2899%
Source Step = 76.0492%
Source Step = 81.8085%
Source Step = 87.5679%
vernier = 0.285087
Source Step = 91.6129%
vernier = 0.00111362
Source Step = 91.6331%
Source Step = 91.6669%
Source Step = 91.7006%
Source Step = 91.7344%
Source Step = 91.7681%
Source Step = 91.8019%
Source Step = 91.8356%
Source Step = 91.8694%
Source Step = 91.9031%
Source Step = 91.9369%
Source Step = 91.9706%
Source Step = 92.0043%
Source Step = 92.0381%
Source Step = 92.0718%
Source Step = 92.1056%
Source Step = 92.1393%
Source Step = 92.1731%
Source Step = 92.2068%
Source Step = 92.2406%
Source Step = 92.2743%
Source Step = 92.3081%
Source Step = 92.3418%
Source Step = 92.3756%
Source Step = 92.4093%
Source Step = 92.443%
Source Step = 92.4768%
Source Step = 92.5105%
Source Step = 92.5443%
Source Step = 92.578%
Source Step = 92.6118%
Source Step = 92.6455%
Source Step = 92.6793%
Source Step = 92.713%
Source Step = 92.7468%
Source Step = 92.7805%
Source Step = 92.8143%
Source Step = 92.848%
Source Step = 92.8817%
Source Step = 92.9155%
Source Step = 92.9492%
Source Step = 92.983%
Source Step = 93.0167%
Source Step = 93.0505%
Source Step = 93.0842%
Source Step = 93.118%
Source Step = 93.1517%
Source Step = 93.1855%
Source Step = 93.2192%
Source Step = 93.253%
Source Step = 93.2867%
Source stepping aborted.
Starting source stepping with srcstepmethod=1
Source Step = 3.0303%
Source Step = 7.82434%
vernier = 0.000976563
Source Step = 7.84209%
Source Step = 7.87169%
Source Step = 7.90128%
Source Step = 7.93087%
Source Step = 7.96046%
vernier = 0.00146484
Source Step = 8.00041%
Source Step = 8.0448%
Source Step = 8.08919%
Source Step = 8.13358%
Source Step = 8.17797%
vernier = 0.00219727
Source Step = 8.23568%
Source Step = 8.30226%
Source Step = 8.36884%
Source Step = 8.43543%
Source Step = 8.50201%
vernier = 0.0032959
Source Step = 8.58524%
Source Step = 8.68512%
Source Step = 8.78499%
Source Step = 8.88487%
Source Step = 8.98474%
vernier = 0.00494385
Source Step = 9.1046%
Source Step = 9.25441%
Source Step = 9.40422%
Source Step = 9.55404%
Source Step = 9.70385%
vernier = 0.00741577
Source Step = 9.87614%
Source Step = 10.1009%
Source Step = 10.3256%
Source Step = 10.5503%
Source Step = 10.775%
vernier = 0.0111237
Source Step = 11.0222%
Source Step = 11.3593%
Source Step = 11.6964%
Source Step = 12.0335%
Source Step = 12.3705%
vernier = 0.0166855
Source Step = 12.7245%
Source Step = 13.2301%
Source Step = 13.7357%
Source Step = 14.2413%
Source Step = 14.7469%
Source Step = 15.2526%
vernier = 0.0250282
Source Step = 16.011%
Source Step = 16.7694%
Source Step = 17.5279%
Source Step = 18.2863%
Source Step = 19.0447%
vernier = 0.0375423
Source Step = 20.1445%
Source Step = 21.2821%
Source Step = 22.4197%
Source Step = 23.5574%
Source Step = 24.695%
vernier = 0.0563135
Source Step = 26.2877%
Source Step = 27.9942%
Source Step = 29.7007%
Source Step = 31.4072%
Source Step = 33.1136%
vernier = 0.0844703
Source Step = 35.4174%
Source Step = 37.9771%
Source Step = 40.5368%
Source Step = 43.0965%
Source Step = 45.6562%
vernier = 0.126705
Source Step = 48.9838%
Source Step = 52.8234%
Source Step = 56.6629%
Source Step = 60.5025%
Source Step = 64.342%
vernier = 0.190058
Source Step = 69.1415%
Source Step = 74.9008%
Source Step = 80.6601%
Source Step = 86.4195%
Source Step = 92.1788%
Source Step = 93.3757%
Source Step = 93.4657%
Source Step = 93.5557%
Source Step = 93.6457%
Source Step = 93.7356%
Source Step = 93.8256%
Source Step = 93.9156%
Source Step = 94.0056%
Source Step = 94.0956%
Source Step = 94.1856%
Source Step = 94.2756%
Source Step = 94.3656%
Source Step = 94.4556%
Source Step = 94.5455%
Source Step = 94.6355%
Source Step = 94.7255%
Source Step = 94.8155%
Source Step = 94.9055%
Source Step = 94.9955%
Source stepping aborted.
Pseudo Transient failed in finding the operating point.
Trouble finding operating point....skipping operating point for Transient analysis.
Changing Tseed to 1e-007
Changing Tseed to 1e-009
Changing Tseed to 1e-006
Changing Tseed to 1e-010
Changing Tseed to 1e-005
Changing Tseed to 1e-011
Changing Tseed to 0.0001
Changing Tseed to 1e-012
Changing Tseed to 0.001
Changing Tseed to 1e-013
Changing Tseed to 0.01
Changing Tseed to 1e-014
Heightened Def Con from 0.0005005 +++++++++