Circuit: * Z:\home\juan\Documents\FIUBA\Materias\Diseno de circuitos electronicos\TPs\TP Final\repositorio\tp-final-ruiz-goyret-DCE-FIUBA-1C2019\Amplificador\simulaciones_amplificador\amplificador_PSNR.asc

Direct Newton iteration failed to find .op point.  (Use ".option noopiter" to skip.)
Starting Gmin stepping
Gmin = 10
Gmin = 1.07374
Gmin = 0.115292
Gmin = 0.0123794
Gmin = 0.00132923
Gmin = 0.000142725
Gmin = 1.5325e-005
vernier = 0.5
vernier = 0.25
Gmin = 3.21388e-006
vernier = 0.125
vernier = 0.0625
vernier = 0.03125
vernier = 0.015625
vernier = 0.0078125
vernier = 0.00390625
vernier = 0.00195313
Gmin = 3.02482e-006
vernier = 0.00260417
Gmin = 3.00765e-006
vernier = 0.00347222
vernier = 0.00173611
vernier = 0.00231481
Gmin = 2.99571e-006
vernier = 0.00308642
Gmin = 2.97498e-006
vernier = 0.00411522
vernier = 0.00548696
Gmin = 2.94052e-006
vernier = 0.00731595
vernier = 0.00975459
Gmin = 2.8864e-006
vernier = 0.0048773
vernier = 0.00243865
vernier = 0.00121932
vernier = 0.000609662
vernier = 0.000457246
Gmin = 0
Gmin stepping failed

Starting source stepping with srcstepmethod=0
Source Step = 3.0303%
vernier = 0.25
Source Step = 3.64583%
vernier = 0.00390625
Source Step = 3.71686%
Source Step = 3.83523%
Source Step = 3.9536%
Source Step = 4.0335%
Source Step = 4.06309%
Source Step = 4.09268%
Source Step = 4.12228%
Source Step = 4.15187%
Source Step = 4.18146%
Source Step = 4.21106%
Source Step = 4.24065%
Source Step = 4.27024%
Source Step = 4.29983%
vernier = 0.00146484
Source Step = 4.34274%
Source Step = 4.38713%
Source Step = 4.43152%
Source Step = 4.47591%
Source Step = 4.5203%
vernier = 0.00219727
Source Step = 4.58245%
Source Step = 4.64903%
Source Step = 4.71561%
Source Step = 4.7822%
Source Step = 4.84878%
vernier = 0.0032959
Source Step = 4.93867%
Source Step = 5.03854%
Source Step = 5.13842%
Source Step = 5.2383%
Source Step = 5.33817%
vernier = 0.00494385
Source Step = 5.46801%
Source Step = 5.5579%
Source Step = 5.59535%
Source Step = 5.63281%
Source Step = 5.67026%
Source Step = 5.70771%
vernier = 0.00185394
Source Step = 5.74891%
Source Step = 5.80509%
Source Step = 5.86127%
Source Step = 5.91745%
Source Step = 5.97363%
vernier = 0.00278091
Source Step = 6.03262%
Source Step = 6.11689%
Source Step = 6.20116%
Source Step = 6.28543%
Source Step = 6.3697%
Source Step = 6.45397%
vernier = 0.00417137
Source Step = 6.58038%
Source Step = 6.70678%
Source Step = 6.83319%
Source Step = 6.95959%
Source Step = 7.086%
vernier = 0.00625706
Source Step = 7.26928%
Source Step = 7.45889%
Source Step = 7.6485%
Source Step = 7.83811%
Source Step = 8.02772%
vernier = 0.00938559
Source Step = 8.29317%
Source Step = 8.57758%
Source Step = 8.86199%
Source Step = 9.1464%
Source Step = 9.43081%
vernier = 0.0140784
Source Step = 9.81477%
Source Step = 10.2414%
Source Step = 10.668%
Source Step = 11.0946%
Source Step = 11.5212%
vernier = 0.0211176
Source Step = 12.0758%
Source Step = 12.7158%
Source Step = 13.3557%
Source Step = 13.9956%
Source Step = 14.6355%
vernier = 0.0316764
Source Step = 15.4355%
Source Step = 16.3953%
Source Step = 17.3552%
Source Step = 18.3151%
Source Step = 19.275%
vernier = 0.0475145
Source Step = 20.4269%
Source Step = 21.8667%
Source Step = 23.3065%
Source Step = 24.7464%
Source Step = 26.1862%
Source Step = 26.8341%
Source Step = 27.1941%
Source Step = 27.5541%
Source Step = 27.914%
Source Step = 28.274%
vernier = 0.0178179
Source Step = 28.7239%
Source Step = 29.2639%
Source Step = 29.8038%
Source Step = 30.3437%
Source Step = 30.8837%
vernier = 0.0267269
Source Step = 31.5316%
Source Step = 32.3415%
Source Step = 33.1514%
Source Step = 33.9613%
Source Step = 34.7712%
vernier = 0.0400904
Source Step = 35.7026%
Source Step = 36.9175%
Source Step = 37.3199%
Source Step = 37.3958%
Source Step = 37.4718%
Source Step = 37.5477%
Source Step = 37.6236%
vernier = 0.00375847
Source Step = 37.7109%
Source Step = 37.8248%
Source Step = 37.9387%
Source Step = 38.0526%
Source Step = 38.1665%
vernier = 0.00563771
Source Step = 38.2918%
Source Step = 38.4626%
Source Step = 38.6335%
Source Step = 38.8043%
Source Step = 38.9752%
vernier = 0.00845657
Source Step = 39.1545%
Source Step = 39.4108%
Source Step = 39.6671%
Source Step = 39.9233%
Source Step = 40.1796%
Source Step = 40.4358%
vernier = 0.0126848
Source Step = 40.8202%
Source Step = 41.2046%
Source Step = 41.589%
Source Step = 41.9734%
Source Step = 42.3578%
vernier = 0.0190273
Source Step = 42.9151%
Source Step = 43.4917%
Source Step = 44.0683%
Source Step = 44.6449%
Source Step = 45.2215%
vernier = 0.0285409
Source Step = 46.0287%
Source Step = 46.8936%
Source Step = 47.7584%
Source Step = 48.6233%
Source Step = 49.4882%
vernier = 0.0428114
Source Step = 50.6558%
Source Step = 51.9531%
Source Step = 53.2504%
Source Step = 54.5477%
Source Step = 55.845%
vernier = 0.064217
Source Step = 57.5315%
Source Step = 59.4775%
Source Step = 61.4235%
Source Step = 63.3695%
Source Step = 65.3154%
vernier = 0.0963256
Source Step = 67.7479%
Source Step = 70.6668%
Source Step = 73.5858%
Source Step = 76.5048%
Source Step = 79.4237%
vernier = 0.144488
Source Step = 82.9265%
Source Step = 87.3049%
Source Step = 90.9171%
Source Step = 90.9718%
Source Step = 91.0403%
Source Step = 91.1087%
Source Step = 91.1771%
Source Step = 91.2455%
Source Step = 91.3139%
Source Step = 91.3823%
Source Step = 91.4507%
Source Step = 91.5191%
Source Step = 91.5876%
Source Step = 91.656%
Source Step = 91.7244%
Source Step = 91.7928%
Source Step = 91.8612%
Source Step = 91.9296%
Source Step = 91.998%
Source Step = 92.0664%
Source Step = 92.1349%
Source Step = 92.2033%
Source Step = 92.2717%
Source Step = 92.3401%
Source Step = 92.4085%
Source Step = 92.4769%
Source Step = 92.5453%
Source Step = 92.6138%
Source Step = 92.6822%
Source Step = 92.7506%
Source Step = 92.819%
Source Step = 92.8874%
Source Step = 92.9558%
vernier = 0.00338645
Source Step = 93.0413%
Source Step = 93.144%
Source Step = 93.2466%
Source Step = 93.3492%
Source Step = 93.4518%
vernier = 0.00507967
Source Step = 93.575%
Source Step = 93.7289%
Source Step = 93.8828%
Source Step = 94.0367%
Source Step = 94.1907%
vernier = 0.0076195
Source Step = 94.3677%
Source Step = 94.5986%
Source Step = 94.8295%
Source Step = 95.0604%
Source Step = 95.2913%
vernier = 0.0114293
Source Step = 95.5453%
Source Step = 95.8916%
Source Step = 96.2379%
Source Step = 96.5843%
Source Step = 96.9306%
vernier = 0.0171439
Source Step = 97.2943%
Source Step = 97.8138%
Source Step = 98.3333%
Source Step = 98.8528%
Source Step = 99.3723%
Source Step = 99.8918%
vernier = 0.0257158
Source stepping succeeded in finding the operating point.


Date: Mon Dec 09 17:24:25 2019
Total elapsed time: 26.650 seconds.

tnom = 27
temp = 27
method = modified trap
totiter = 82934
traniter = 44521
tranpoints = 21509
accept = 13295
rejected = 8214
matrix size = 187
fillins = 411
solver = Alternate
Thread vector: 60.5/34.4[2] 22.9/15.9[2] 5.9/5.7[1] 8.8/7.6[2]  2592/500
Matrix Compiler1: 53.27 KB object code size  30.6/19.1/[15.2]
Matrix Compiler2: 27.55 KB object code size  13.4/12.2/[7.7]

