Circuit: * C:\Users\Juan Pablo\Documents\repositorios\tp-final-DCE\Amplificador\simulaciones_amplificador\amplificador_completo.asc

WARNING: Node VIN is floating.

WARNING: Less than two connections to node NC_01.  This node is used by Q11.
WARNING: Less than two connections to node NC_02.  This node is used by R22.
WARNING: Less than two connections to node VIN.  This node is used by C1.
WARNING: Less than two connections to node VMIN.  This node is used by V1.
WARNING: Less than two connections to node NC_03.  This node is used by R41.
Direct Newton iteration failed to find .op point.  (Use ".option noopiter" to skip.)
Starting Gmin stepping
Gmin = 10
Gmin = 1.07374
Gmin = 0.115292
Gmin = 0.0123794
Gmin = 0.00132923
Gmin = 0.000142725
Gmin = 1.5325e-005
Gmin = 1.6455e-006
Gmin = 1.76685e-007
vernier = 0.5
Gmin = 2.96428e-008
vernier = 0.25
vernier = 0.125
vernier = 0.0625
vernier = 0.03125
Gmin = 2.70537e-008
vernier = 0.015625
vernier = 0.0078125
vernier = 0.00390625
Gmin = 2.68434e-008
vernier = 0.00195313
vernier = 0.000976563
vernier = 0.000488281
Gmin = 0
Gmin = 0
Gmin stepping failed

Starting source stepping with srcstepmethod=0
Source Step = 3.0303%
Source Step = 33.3333%
Source Step = 63.6364%
Source Step = 88.6364%
Source Step = 90.0331%
Source Step = 90.0598%
Source Step = 90.0894%
Source Step = 90.119%
Source Step = 90.1486%
Source Step = 90.1781%
Source Step = 90.2077%
Source Step = 90.2373%
Source Step = 90.2669%
Source Step = 90.2965%
Source Step = 90.3261%
Source Step = 90.3557%
Source Step = 90.3853%
Source Step = 90.4149%
Source Step = 90.4445%
Source Step = 90.4741%
Source Step = 90.5037%
Source Step = 90.5333%
Source Step = 90.5629%
Source Step = 90.5924%
Source Step = 90.622%
Source Step = 90.6516%
Source Step = 90.6812%
Source Step = 90.7108%
Source Step = 90.7404%
Source Step = 90.77%
vernier = 0.00146484
Source Step = 90.8114%
Source Step = 90.8558%
Source Step = 90.9002%
Source Step = 90.9446%
Source Step = 90.989%
vernier = 0.00219727
Source Step = 91.0489%
Source Step = 91.1155%
Source Step = 91.1821%
Source Step = 91.2487%
Source Step = 91.3153%
vernier = 0.0032959
Source Step = 91.4018%
Source Step = 91.5017%
Source Step = 91.6016%
Source Step = 91.7014%
Source Step = 91.8013%
vernier = 0.00494385
Source Step = 91.9262%
Source Step = 92.076%
Source Step = 92.2258%
Source Step = 92.3756%
Source Step = 92.5254%
vernier = 0.00741577
Source Step = 92.7052%
Source Step = 92.9299%
Source Step = 93.1546%
Source Step = 93.3794%
Source Step = 93.6041%
vernier = 0.0111237
Source Step = 93.8625%
Source Step = 94.1996%
Source Step = 94.5367%
Source Step = 94.8737%
Source Step = 95.2108%
vernier = 0.0166855
Source Step = 95.5816%
Source Step = 96.0872%
Source Step = 96.5929%
Source Step = 97.0985%
Source Step = 97.6041%
vernier = 0.0250282
Source Step = 98.135%
Source Step = 98.8934%
Source Step = 99.6519%
Source stepping succeeded in finding the operating point.


Date: Fri Jul 12 11:26:55 2019
Total elapsed time: 2.126 seconds.

tnom = 27
temp = 27
method = modified trap
totiter = 19197
traniter = 2082
tranpoints = 1042
accept = 1042
rejected = 0
matrix size = 92
fillins = 144
solver = Normal
Matrix Compiler1: 15.35 KB object code size  3.8/1.5/[0.9]
Matrix Compiler2: 10.32 KB object code size  1.2/1.5/[0.9]

