Circuit: * C:\users\juan\My Documents\Diseno de circuitos electronicos\repositorio\tp-final-ruiz-goyret-DCE-FIUBA-1C2019\Amplificador\simulaciones_amplificador\amplificador_prueba.asc

Direct Newton iteration failed to find .op point.  (Use ".option noopiter" to skip.)
Starting Gmin stepping
Gmin = 10
Gmin = 1.07374
Gmin = 0.115292
Gmin = 0.0123794
Gmin = 0.00132923
Gmin = 0.000142725
Gmin = 1.5325e-005
vernier = 0.5
Gmin = 3.1742e-006
vernier = 0.25
vernier = 0.125
vernier = 0.0625
vernier = 0.03125
vernier = 0.015625
vernier = 0.0078125
vernier = 0.00390625
vernier = 0.00195313
Gmin = 3.36092e-006
vernier = 0.000976563
vernier = 0.000488281
Gmin = 0
Gmin stepping failed

Starting source stepping with srcstepmethod=0
Source Step = 3.0303%
vernier = 0.25
Source Step = 3.2197%
Source Step = 3.46532%
Source Step = 3.49491%
Source Step = 3.5245%
Source Step = 3.5541%
Source Step = 3.58369%
Source Step = 3.61328%
vernier = 0.00146484
Source Step = 3.65471%
Source Step = 3.6991%
Source Step = 3.74349%
Source Step = 3.78788%
Source Step = 3.83227%
vernier = 0.00219727
Source Step = 3.89219%
Source Step = 3.95878%
Source Step = 4.02536%
Source Step = 4.09194%
Source Step = 4.15853%
vernier = 0.0032959
Source Step = 4.24509%
Source Step = 4.34496%
Source Step = 4.44484%
Source Step = 4.54471%
Source Step = 4.64459%
vernier = 0.00494385
Source Step = 4.76944%
Source Step = 4.91925%
Source Step = 5.06906%
Source Step = 5.21888%
Source Step = 5.36869%
vernier = 0.00741577
Source Step = 5.54847%
Source Step = 5.77319%
Source Step = 5.8406%
Source Step = 5.89678%
Source Step = 5.95296%
Source Step = 6.00914%
Source Step = 6.06532%
vernier = 0.00278091
Source Step = 6.13274%
Source Step = 6.21701%
Source Step = 6.30128%
Source Step = 6.38555%
Source Step = 6.46982%
vernier = 0.00417137
Source Step = 6.56673%
Source Step = 6.69313%
Source Step = 6.81954%
Source Step = 6.94595%
Source Step = 7.07235%
vernier = 0.00625706
Source Step = 7.2114%
Source Step = 7.401%
Source Step = 7.59061%
Source Step = 7.78022%
Source Step = 7.96983%
vernier = 0.00938559
Source Step = 8.16892%
Source Step = 8.45333%
Source Step = 8.73774%
Source Step = 9.02215%
Source Step = 9.30656%
Source Step = 9.59097%
vernier = 0.0140784
Source Step = 10.0176%
Source Step = 10.4442%
Source Step = 10.8708%
Source Step = 11.2974%
Source Step = 11.7241%
vernier = 0.0211176
Source Step = 12.3427%
Source Step = 12.9826%
Source Step = 13.6225%
Source Step = 14.2624%
Source Step = 14.9024%
vernier = 0.0316764
Source Step = 15.7983%
Source Step = 16.7581%
Source Step = 17.718%
Source Step = 18.6779%
Source Step = 19.6378%
vernier = 0.0475145
Source Step = 20.9337%
Source Step = 22.3735%
Source Step = 23.8133%
Source Step = 24.0203%
Source Step = 24.1103%
Source Step = 24.2003%
Source Step = 24.2903%
Source Step = 24.3803%
vernier = 0.00445449
Source Step = 24.4973%
Source Step = 24.6322%
Source Step = 24.7672%
Source Step = 24.9022%
Source Step = 25.0372%
vernier = 0.00668173
Source Step = 25.2059%
Source Step = 25.4084%
Source Step = 25.6109%
Source Step = 25.8134%
Source Step = 26.0158%
vernier = 0.0100226
Source Step = 26.2588%
Source Step = 26.5625%
Source Step = 26.8662%
Source Step = 27.1699%
Source Step = 27.4737%
vernier = 0.0150339
Source Step = 27.8229%
Source Step = 28.2785%
Source Step = 28.7341%
Source Step = 29.1897%
Source Step = 29.6452%
vernier = 0.0225508
Source Step = 30.1464%
Source Step = 30.8297%
Source Step = 31.5131%
Source Step = 32.1964%
Source Step = 32.8798%
vernier = 0.0338263
Source Step = 33.5973%
Source Step = 34.6224%
Source Step = 35.6474%
Source Step = 36.6724%
Source Step = 37.6975%
Source Step = 38.7225%
vernier = 0.0507394
Source Step = 40.2601%
Source Step = 41.7976%
Source Step = 42.8355%
Source Step = 43.0949%
Source Step = 43.191%
Source Step = 43.2871%
Source Step = 43.3832%
Source Step = 43.4793%
vernier = 0.00475682
Source Step = 43.5802%
Source Step = 43.7244%
Source Step = 43.8685%
Source Step = 44.0127%
Source Step = 44.1568%
Source Step = 44.301%
vernier = 0.00713523
Source Step = 44.5172%
Source Step = 44.7334%
Source Step = 44.9496%
Source Step = 45.1658%
Source Step = 45.3821%
vernier = 0.0107028
Source Step = 45.6956%
Source Step = 46.0199%
Source Step = 46.3442%
Source Step = 46.6686%
Source Step = 46.9929%
vernier = 0.0160543
Source Step = 47.4469%
Source Step = 47.9334%
Source Step = 48.4199%
Source Step = 48.9064%
Source Step = 49.3929%
vernier = 0.0240814
Source Step = 50.0497%
Source Step = 50.7794%
Source Step = 51.5092%
Source Step = 52.2389%
Source Step = 52.9686%
vernier = 0.0361221
Source Step = 53.9173%
Source Step = 55.0119%
Source Step = 56.1065%
Source Step = 57.2011%
Source Step = 58.2957%
vernier = 0.0541831
Source Step = 59.664%
Source Step = 61.3059%
Source Step = 62.9478%
Source Step = 64.5897%
Source Step = 66.2316%
vernier = 0.0812747
Source Step = 68.2019%
Source Step = 70.6648%
Source Step = 73.1277%
Source Step = 75.5906%
Source Step = 78.0534%
vernier = 0.121912
Source Step = 80.8857%
Source Step = 84.58%
Source Step = 88.2743%
Source Step = 91.9686%
Source Step = 92.3727%
Source Step = 92.4304%
Source Step = 92.4881%
Source Step = 92.5459%
Source Step = 92.6036%
Source Step = 92.6613%
Source Step = 92.719%
vernier = 0.00285731
Source Step = 92.7854%
Source Step = 92.872%
Source Step = 92.9586%
Source Step = 93.0452%
Source Step = 93.1318%
vernier = 0.00428597
Source Step = 93.227%
Source Step = 93.3569%
Source Step = 93.4868%
Source Step = 93.6166%
Source Step = 93.7465%
vernier = 0.00642896
Source Step = 93.8829%
Source Step = 94.0777%
Source Step = 94.2725%
Source Step = 94.4673%
Source Step = 94.6622%
Source Step = 94.857%
vernier = 0.00964343
Source Step = 95.1492%
Source Step = 95.4414%
Source Step = 95.7336%
Source Step = 96.0259%
Source Step = 96.3181%
vernier = 0.0144651
Source Step = 96.7418%
Source Step = 97.1802%
Source Step = 97.6185%
Source Step = 98.0568%
Source Step = 98.4952%
vernier = 0.0216977
Source Step = 99.1089%
Source Step = 99.7664%
Source stepping succeeded in finding the operating point.


Date: Mon Aug 12 20:13:59 2019
Total elapsed time: 15.312 seconds.

tnom = 27
temp = 27
method = modified trap
totiter = 81295
traniter = 66283
tranpoints = 17680
accept = 12613
rejected = 5067
matrix size = 181
fillins = 428
solver = Alternate
Thread vector: 62.8/40.3[2] 23.0/18.6[2] 5.2/5.6[1] 8.9/8.2[2]  2592/500
Matrix Compiler1: 54.51 KB object code size  28.7/18.4/[14.3]
Matrix Compiler2: 27.54 KB object code size  13.3/13.8/[8.4]

