Circuit: * C:\Users\Admin\Documents\git\tp-final-ruiz-goyret-DCE-FIUBA-1C2019\Amplificador\simulaciones_amplificador\proteccion_parlante_DC.asc

WARNING: Node N010 is floating.

WARNING: Less than two connections to node NC_01.  This node is used by V4.
.OP point found by inspection.

Date: Mon Aug 26 17:46:33 2019
Total elapsed time: 2.900 seconds.

tnom = 27
temp = 27
method = modified trap
totiter = 109990
traniter = 109990
tranpoints = 54630
accept = 34252
rejected = 20378
matrix size = 28
fillins = 10
solver = Normal
Matrix Compiler1: 2.07 KB object code size  1.9/1.2/[0.7]
Matrix Compiler2: 2.27 KB object code size  1.0/1.7/[0.7]

