Circuit: * C:\users\juan\My Documents\Diseno de circuitos electronicos\repositorio\tp-final-ruiz-goyret-DCE-FIUBA-1C2019\Amplificador\simulaciones_amplificador\test_proteccion_sobrecorriente.asc


Date: Tue Aug 13 16:38:17 2019
Total elapsed time: 0.052 seconds.

tnom = 27
temp = 27
method = trap
totiter = 66
traniter = 0
tranpoints = 0
accept = 0
rejected = 0
matrix size = 10
fillins = 0
solver = Alternate
Matrix Compiler1: 642 bytes object code size
Matrix Compiler2: 842 bytes object code size
