Circuit: * C:\Users\Juan Pablo\Documents\repositorios\tp-final-DCE\Supply\Simulaciones\LT1775_split_rails.asc

Direct Newton iteration for .op point succeeded.

Date: Fri Jun 07 10:28:40 2019
Total elapsed time: 11.631 seconds.

tnom = 27
temp = 27
method = modified trap
totiter = 811599
traniter = 811582
tranpoints = 236505
accept = 168431
rejected = 68074
matrix size = 59
fillins = 11
solver = Normal
Thread vector: 6.9/4.9[3] 3.0/2.3[3] 0.9/0.9[1] 0.2/0.9[1]  2592/500
Matrix Compiler1: 2.76 KB object code size  1.1/0.5/[0.3]
Matrix Compiler2: off  [0.3]/0.6/0.5

