Circuit: * C:\Users\Juan Pablo\Documents\repositorios\tp-final-DCE\Supply\Simulaciones\LTC3864.asc

C12: both pins shorted together -- ignoring.
WARNING: Less than two connections to node OUT.  This node is used by R2.
Direct Newton iteration for .op point succeeded.

Date: Thu Jul 04 09:58:38 2019
Total elapsed time: 61.355 seconds.

tnom = 27
temp = 27
method = modified trap
totiter = 3281946
traniter = 3281926
tranpoints = 817411
accept = 623896
rejected = 193515
matrix size = 68
fillins = 6
solver = Normal
Thread vector: 10.3/7.1[3] 4.7/3.0[3] 1.2/1.1[1] 0.2/1.0[1]  2592/500
Matrix Compiler1: 2.43 KB object code size  1.0/0.5/[0.3]
Matrix Compiler2: off  [0.4]/0.7/0.6

