Circuit: * Z:\home\juan\Documents\Diseno de circuitos electronicos\TPs\TP Final\tp-final-ruiz-goyret-DCE-FIUBA-1C2019\Amplificador\simulacion\tp_final_amplificador_completo.asc

Early termination of direct N-R iteration.
Direct Newton iteration failed to find .op point.  (Use ".option noopiter" to skip.)
Starting Gmin stepping
Gmin = 10
Gmin = 1.07374
Gmin = 0.115292
Gmin = 0.0123794
Gmin = 0.00132923
Gmin = 0.000142725
Gmin = 1.5325e-005
vernier = 0.5
vernier = 0.25
Gmin = 3.21388e-006
vernier = 0.125
vernier = 0.0625
vernier = 0.03125
vernier = 0.015625
vernier = 0.0078125
vernier = 0.00390625
vernier = 0.00195313
Gmin = 2.84689e-006
vernier = 0.000976563
vernier = 0.00130208
Gmin = 2.83972e-006
vernier = 0.00173611
vernier = 0.00231481
Gmin = 2.82722e-006
vernier = 0.00308642
Gmin = 2.80766e-006
vernier = 0.00411522
vernier = 0.00548696
Gmin = 2.77514e-006
vernier = 0.00731595
vernier = 0.00365797
vernier = 0.00182899
vernier = 0.000914493
Gmin = 2.74738e-006
vernier = 0.00121932
Gmin = 2.74007e-006
vernier = 0.00162576
vernier = 0.00216769
Gmin = 2.72812e-006
vernier = 0.00289025
vernier = 0.00385366
Gmin = 2.7093e-006
vernier = 0.00513821
Gmin = 2.67904e-006
vernier = 0.00685095
vernier = 0.0091346
Gmin = 2.63021e-006
vernier = 0.0045673
vernier = 0.00228365
vernier = 0.00114182
vernier = 0.000570912
vernier = 0.000428184
Gmin = 0
Gmin stepping failed

Starting source stepping with srcstepmethod=0
Source Step = 3.0303%
vernier = 0.25
Source Step = 3.2197%
Source Step = 3.5541%
Source Step = 3.58369%
Source Step = 3.61328%
Source Step = 3.64287%
Source Step = 3.67247%
Source Step = 3.70206%
Source Step = 3.73165%
vernier = 0.00146484
Source Step = 3.76864%
Source Step = 3.81303%
Source Step = 3.85742%
Source Step = 3.90181%
Source Step = 3.9462%
vernier = 0.00219727
Source Step = 3.99947%
Source Step = 4.06605%
Source Step = 4.13263%
Source Step = 4.19922%
Source Step = 4.2658%
vernier = 0.0032959
Source Step = 4.34237%
Source Step = 4.44225%
Source Step = 4.54213%
Source Step = 4.642%
Source Step = 4.74188%
vernier = 0.00494385
Source Step = 4.85174%
Source Step = 5.00155%
Source Step = 5.15137%
Source Step = 5.24126%
Source Step = 5.27871%
Source Step = 5.31616%
Source Step = 5.35362%
Source Step = 5.39107%
vernier = 0.00185394
Source Step = 5.43039%
Source Step = 5.48658%
Source Step = 5.54276%
Source Step = 5.59894%
Source Step = 5.65512%
Source Step = 5.7113%
vernier = 0.00278091
Source Step = 5.79557%
Source Step = 5.87984%
Source Step = 5.96411%
Source Step = 6.04838%
Source Step = 6.13265%
vernier = 0.00417137
Source Step = 6.25484%
Source Step = 6.38124%
Source Step = 6.50765%
Source Step = 6.63405%
Source Step = 6.76046%
vernier = 0.00625706
Source Step = 6.93743%
Source Step = 7.12703%
Source Step = 7.31664%
Source Step = 7.50625%
Source Step = 7.69586%
vernier = 0.00938559
Source Step = 7.95183%
Source Step = 8.03715%
Source Step = 8.10825%
Source Step = 8.17936%
Source Step = 8.25046%
Source Step = 8.32156%
vernier = 0.00351959
Source Step = 8.41044%
Source Step = 8.5171%
Source Step = 8.62375%
Source Step = 8.7304%
Source Step = 8.83706%
vernier = 0.00527939
Source Step = 8.96504%
Source Step = 9.12503%
Source Step = 9.28501%
Source Step = 9.44499%
Source Step = 9.60497%
vernier = 0.00791909
Source Step = 9.78895%
Source Step = 10.0289%
Source Step = 10.2689%
Source Step = 10.5089%
Source Step = 10.7488%
vernier = 0.0118786
Source Step = 11.0128%
Source Step = 11.3728%
Source Step = 11.7327%
Source Step = 12.0927%
Source Step = 12.4526%
vernier = 0.0178179
Source Step = 12.8306%
Source Step = 13.3705%
Source Step = 13.9105%
Source Step = 14.4504%
Source Step = 14.9904%
Source Step = 15.5303%
vernier = 0.0267269
Source Step = 16.3402%
Source Step = 17.1501%
Source Step = 17.96%
Source Step = 18.5674%
Source Step = 18.6282%
Source Step = 18.6788%
Source Step = 18.7294%
Source Step = 18.78%
Source Step = 18.8307%
vernier = 0.00250565
Source Step = 18.899%
Source Step = 18.9749%
Source Step = 19.0509%
Source Step = 19.1268%
Source Step = 19.2027%
vernier = 0.00375847
Source Step = 19.3014%
Source Step = 19.4153%
Source Step = 19.5292%
Source Step = 19.6431%
Source Step = 19.757%
vernier = 0.00563771
Source Step = 19.8994%
Source Step = 20.0702%
Source Step = 20.241%
Source Step = 20.4119%
Source Step = 20.5827%
vernier = 0.00845657
Source Step = 20.7877%
Source Step = 21.044%
Source Step = 21.3002%
Source Step = 21.5565%
Source Step = 21.8128%
vernier = 0.0126848
Source Step = 22.1075%
Source Step = 22.4918%
Source Step = 22.8762%
Source Step = 23.2606%
Source Step = 23.645%
vernier = 0.0190273
Source Step = 24.0678%
Source Step = 24.6444%
Source Step = 25.221%
Source Step = 25.7976%
Source Step = 26.3742%
vernier = 0.0285409
Source Step = 26.9796%
Source Step = 27.8445%
Source Step = 28.7093%
Source Step = 29.5742%
Source Step = 30.4391%
Source Step = 31.304%
vernier = 0.0428114
Source Step = 32.6013%
Source Step = 33.8986%
Source Step = 35.1959%
Source Step = 36.4932%
Source Step = 37.7905%
vernier = 0.064217
Source Step = 39.6716%
Source Step = 41.6176%
Source Step = 43.5636%
Source Step = 45.5096%
Source Step = 47.4555%
vernier = 0.0963256
Source Step = 50.1799%
Source Step = 53.0988%
Source Step = 56.0178%
Source Step = 58.9368%
Source Step = 61.8557%
vernier = 0.144488
Source Step = 65.7963%
Source Step = 70.1747%
Source Step = 74.5532%
Source Step = 78.9316%
Source Step = 82.5438%
vernier = 0.00903052
Source Step = 82.708%
Source Step = 82.9817%
Source Step = 83.2553%
Source Step = 83.529%
Source Step = 83.8026%
vernier = 0.0135458
Source Step = 84.1994%
Source Step = 84.6099%
Source Step = 85.0204%
Source Step = 85.4309%
Source Step = 85.8413%
vernier = 0.0203187
Source Step = 86.416%
Source Step = 87.0317%
Source Step = 87.6474%
Source Step = 88.2632%
Source Step = 88.8789%
vernier = 0.030478
Source Step = 89.7101%
Source Step = 90.1372%
Source Step = 90.195%
Source Step = 90.2527%
Source Step = 90.3104%
Source Step = 90.3681%
Source Step = 90.4259%
Source Step = 90.4836%
Source Step = 90.5413%
Source Step = 90.599%
Source Step = 90.6568%
Source Step = 90.7145%
Source Step = 90.7722%
Source Step = 90.8299%
Source Step = 90.8876%
Source Step = 90.9454%
Source Step = 91.0031%
Source Step = 91.0608%
Source Step = 91.1185%
Source Step = 91.1763%
Source Step = 91.234%
Source Step = 91.2917%
Source Step = 91.3494%
Source Step = 91.4072%
Source Step = 91.4649%
Source Step = 91.5226%
Source Step = 91.5803%
Source Step = 91.6381%
Source Step = 91.6958%
Source Step = 91.7535%
Source Step = 91.8112%
Source Step = 91.8689%
Source Step = 91.9267%
Source Step = 91.9844%
Source Step = 92.0421%
Source Step = 92.0998%
vernier = 0.00285731
Source Step = 92.1749%
Source Step = 92.2615%
Source Step = 92.3481%
Source Step = 92.4346%
Source Step = 92.5212%
vernier = 0.00428597
Source Step = 92.6295%
Source Step = 92.7593%
Source Step = 92.8892%
Source Step = 93.0191%
Source Step = 93.149%
vernier = 0.00642896
Source Step = 93.3048%
Source Step = 93.4996%
Source Step = 93.6945%
Source Step = 93.8893%
Source Step = 94.0841%
vernier = 0.00964343
Source Step = 94.3081%
Source Step = 94.6004%
Source Step = 94.8926%
Source Step = 95.1848%
Source Step = 95.477%
vernier = 0.0144651
Source Step = 95.7985%
Source Step = 96.2368%
Source Step = 96.6751%
Source Step = 97.1135%
Source Step = 97.5518%
vernier = 0.0216977
Source Step = 98.0121%
Source Step = 98.6696%
Source Step = 99.3271%
Source Step = 99.9846%
Source stepping succeeded in finding the operating point.


Date: Tue Jun 11 21:16:40 2019
Total elapsed time: 23.296 seconds.

tnom = 27
temp = 27
method = modified trap
totiter = 49569
traniter = 7072
tranpoints = 2046
accept = 1721
rejected = 325
matrix size = 177
fillins = 404
solver = Normal
Thread vector: 28.8/16.2[2] 13.1/9.1[2] 4.3/5.3[1] 3.5/4.9[1]  2592/500
Matrix Compiler1: 40.67 KB object code size  18.9/11.4/[5.6]
Matrix Compiler2: 23.00 KB object code size  7.7/7.3/[3.7]

